LTspice 24.1.1 for Windows
Circuit: C:\Users\jimtr\OneDrive - polymtl\Projet\TP_projet_équipe_15\2e_partie\passe-bas.net
Start Time: Thu Sep 18 14:06:44 2025
solver = Normal
Maximum thread count: 8
tnom = 27
temp = 27
method = trap
Direct Newton iteration for .op point succeeded.
Total elapsed time: 0.080 seconds.

Files loaded:
C:\Users\jimtr\OneDrive - polymtl\Projet\TP_projet_équipe_15\2e_partie\passe-bas.net
C:\Users\jimtr\OneDrive - polymtl\Projet\TP_projet_équipe_15\2e_partie\TL082.lib\TL082.301

