LTspice 24.1.1 for Windows
Circuit: C:\Users\jimtr\OneDrive - polymtl\Projet\TP_projet_équipe_15\TP1\LTspice\inverseur.net
Start Time: Tue Sep  2 12:34:04 2025
solver = Normal
Maximum thread count: 8
tnom = 27
temp = 27
method = trap
Direct Newton iteration failed to find .op point.  (Use ".option noopiter" to skip.)
Starting Gmin stepping
Gmin = 10
vernier = 0.5
vernier = 0.25
vernier = 0.125
Gmin = 5.5165
vernier = 0.0625
vernier = 0.03125
vernier = 0.015625
vernier = 0.0078125
Gmin = 5.48432
vernier = 0.00390625
vernier = 0.00195312
vernier = 0.000976562
vernier = 0.000488281
Gmin = 0
Gmin stepping succeeded in finding the operating point.

Total elapsed time: 0.314 seconds.

Files loaded:
C:\Users\jimtr\OneDrive - polymtl\Projet\TP_projet_équipe_15\TP1\LTspice\inverseur.net
C:\Users\jimtr\OneDrive - polymtl\Projet\TP_projet_équipe_15\TP1\LTspice\TL082.lib\TL082.301.cir

