LTspice 24.1.1 for Windows
Circuit: C:\Users\jimtr\OneDrive - polymtl\Projet\ELE2003_Table15\LesLTspice\avant_vrai_Projet\Modulateur\par_jim\Mon_modulateur.net
Start Time: Fri Oct 10 14:39:36 2025
solver = Normal
Maximum thread count: 8
tnom = 27
temp = 27
method = trap
Direct Newton iteration for .op point succeeded.
Total elapsed time: 0.167 seconds.

Files loaded:
C:\Users\jimtr\OneDrive - polymtl\Projet\ELE2003_Table15\LesLTspice\avant_vrai_Projet\Modulateur\par_jim\Mon_modulateur.net
C:\Users\jimtr\AppData\Local\LTspice\lib\cmp\standard.jft
C:\Users\jimtr\OneDrive - polymtl\Projet\ELE2003_Table15\LesLTspice\TL082.lib\TL082.301

