LTspice 24.1.10 for Windows
Circuit: C:\Users\pojeu\OneDrive\Bureau\Devoir\ELE2003_Table15\LesLTspice\partie 1\isolation_d'impedance\isolation_impédance.net
Start Time: Mon Sep 29 22:52:17 2025
solver = Normal
Maximum thread count: 8
tnom = 27
temp = 27
method = trap
Direct Newton iteration for .op point succeeded.
Total elapsed time: 0.137 seconds.

Files loaded:
C:\Users\pojeu\OneDrive\Bureau\Devoir\ELE2003_Table15\LesLTspice\partie 1\isolation_d'impedance\isolation_impédance.net
C:\Users\pojeu\OneDrive\Bureau\Devoir\ELE2003_Table15\LesLTspice\TL082.lib\TL082.301

