LTspice 24.1.1 for Windows
Circuit: C:\Users\jimtr\OneDrive - polymtl\Projet\ELE2003_Table15\LesLTspice\partie 1\non-inverseur\non_inverseur.net
Start Time: Fri Sep 26 14:28:49 2025
solver = Normal
Maximum thread count: 8
tnom = 27
temp = 27
method = trap
Early termination of direct N-R iteration.
Direct Newton iteration failed to find .op point.  (Use ".option noopiter" to skip.)
Starting Gmin stepping
Gmin = 10
vernier = 0.5
Gmin = 2.07126
vernier = 0.25
vernier = 0.125
vernier = 0.0625
vernier = 0.03125
Gmin = 2.20755
vernier = 0.015625
vernier = 0.0078125
vernier = 0.00390625
vernier = 0.00195312
Gmin = 2.20217
vernier = 0.000976562
vernier = 0.000488281
Gmin = 0
Gmin stepping succeeded in finding the operating point.

Total elapsed time: 0.635 seconds.

Files loaded:
C:\Users\jimtr\OneDrive - polymtl\Projet\ELE2003_Table15\LesLTspice\partie 1\non-inverseur\non_inverseur.net
C:\Users\jimtr\OneDrive - polymtl\Projet\ELE2003_Table15\LesLTspice\TL082.lib\TL082.301

