LTspice 24.1.1 for Windows
Circuit: C:\Users\jimtr\OneDrive - polymtl\Projet\ELE2003_Table15\LesLTspice\partie 2\Passe-bas\adapté_selon_lab\passe-bas_adapte.net
Start Time: Thu Sep 25 16:39:24 2025
solver = Normal
Maximum thread count: 8
tnom = 27
temp = 27
method = trap
Direct Newton iteration for .op point succeeded.
Total elapsed time: 0.056 seconds.

Files loaded:
C:\Users\jimtr\OneDrive - polymtl\Projet\ELE2003_Table15\LesLTspice\partie 2\Passe-bas\adapté_selon_lab\passe-bas_adapte.net
C:\Users\jimtr\OneDrive - polymtl\Projet\ELE2003_Table15\LesLTspice\TL082.lib\TL082.301

