LTspice 24.1.1 for Windows
Circuit: C:\Users\jimtr\OneDrive - polymtl\Projet\ELE2003_Table15\LesLTspice\partie 2\Passe-bas\passe-bas.net
Start Time: Thu Sep 25 16:35:42 2025
solver = Normal
Maximum thread count: 8
tnom = 27
temp = 27
method = trap
Direct Newton iteration for .op point succeeded.
Total elapsed time: 0.123 seconds.

Files loaded:
C:\Users\jimtr\OneDrive - polymtl\Projet\ELE2003_Table15\LesLTspice\partie 2\Passe-bas\passe-bas.net
C:\Users\jimtr\OneDrive - polymtl\Projet\ELE2003_Table15\LesLTspice\TL082.lib\TL082.301

